
---------- Begin Simulation Statistics ----------
simSeconds                                   0.000079                       # Number of seconds simulated (Second)
simTicks                                     78881373                       # Number of ticks simulated (Tick)
finalTick                                    78881373                       # Number of ticks from beginning of simulation (restored from checkpoints and never reset) (Tick)
simFreq                                  1000000000000                       # The number of ticks per simulated second ((Tick/Second))
hostSeconds                                      0.10                       # Real time elapsed on the host (Second)
hostTickRate                                801167736                       # The number of ticks simulated per host second (ticks/s) ((Tick/Second))
hostMemory                                    1195828                       # Number of bytes of host memory used (Byte)
simInsts                                         6555                       # Number of instructions simulated (Count)
simOps                                          12992                       # Number of ops (including micro ops) simulated (Count)
hostInstRate                                    66517                       # Simulator instruction rate (inst/s) ((Count/Second))
hostOpRate                                     131832                       # Simulator op (including micro ops) rate (op/s) ((Count/Second))
board.cache_hierarchy.membus.transDist::ReadReq         3691                       # Transaction distribution (Count)
board.cache_hierarchy.membus.transDist::ReadResp         3689                       # Transaction distribution (Count)
board.cache_hierarchy.membus.transDist::WriteReq         1351                       # Transaction distribution (Count)
board.cache_hierarchy.membus.transDist::WriteResp         1351                       # Transaction distribution (Count)
board.cache_hierarchy.membus.pktCount_board.processor.cores.core.icache_port::board.memory.mem_ctrl.port         3844                       # Packet count per connected requestor and responder (Count)
board.cache_hierarchy.membus.pktCount_board.processor.cores.core.icache_port::total         3844                       # Packet count per connected requestor and responder (Count)
board.cache_hierarchy.membus.pktCount_board.processor.cores.core.dcache_port::board.memory.mem_ctrl.port         6238                       # Packet count per connected requestor and responder (Count)
board.cache_hierarchy.membus.pktCount_board.processor.cores.core.dcache_port::total         6238                       # Packet count per connected requestor and responder (Count)
board.cache_hierarchy.membus.pktCount::total        10082                       # Packet count per connected requestor and responder (Count)
board.cache_hierarchy.membus.pktSize_board.processor.cores.core.icache_port::board.memory.mem_ctrl.port       122944                       # Cumulative packet size per connected requestor and responder (Byte)
board.cache_hierarchy.membus.pktSize_board.processor.cores.core.icache_port::total       122944                       # Cumulative packet size per connected requestor and responder (Byte)
board.cache_hierarchy.membus.pktSize_board.processor.cores.core.dcache_port::board.memory.mem_ctrl.port        21827                       # Cumulative packet size per connected requestor and responder (Byte)
board.cache_hierarchy.membus.pktSize_board.processor.cores.core.dcache_port::total        21827                       # Cumulative packet size per connected requestor and responder (Byte)
board.cache_hierarchy.membus.pktSize::total       144771                       # Cumulative packet size per connected requestor and responder (Byte)
board.cache_hierarchy.membus.snoops                 0                       # Total snoops (Count)
board.cache_hierarchy.membus.snoopTraffic            0                       # Total snoop traffic (Byte)
board.cache_hierarchy.membus.snoopFanout::samples         5042                       # Request fanout histogram (Count)
board.cache_hierarchy.membus.snoopFanout::mean            0                       # Request fanout histogram (Count)
board.cache_hierarchy.membus.snoopFanout::stdev            0                       # Request fanout histogram (Count)
board.cache_hierarchy.membus.snoopFanout::underflows            0      0.00%      0.00% # Request fanout histogram (Count)
board.cache_hierarchy.membus.snoopFanout::0         5042    100.00%    100.00% # Request fanout histogram (Count)
board.cache_hierarchy.membus.snoopFanout::1            0      0.00%    100.00% # Request fanout histogram (Count)
board.cache_hierarchy.membus.snoopFanout::overflows            0      0.00%    100.00% # Request fanout histogram (Count)
board.cache_hierarchy.membus.snoopFanout::min_value            0                       # Request fanout histogram (Count)
board.cache_hierarchy.membus.snoopFanout::max_value            0                       # Request fanout histogram (Count)
board.cache_hierarchy.membus.snoopFanout::total         5042                       # Request fanout histogram (Count)
board.cache_hierarchy.membus.badaddr_responder.power_state.pwrStateResidencyTicks::UNDEFINED     78881373                       # Cumulative time (in ticks) in various power states (Tick)
board.cache_hierarchy.membus.power_state.pwrStateResidencyTicks::UNDEFINED     78881373                       # Cumulative time (in ticks) in various power states (Tick)
board.cache_hierarchy.membus.reqLayer2.occupancy      2128869                       # Layer occupancy (ticks) (Tick)
board.cache_hierarchy.membus.reqLayer2.utilization          0.0                       # Layer utilization (Ratio)
board.cache_hierarchy.membus.respLayer0.occupancy      1630773                       # Layer occupancy (ticks) (Tick)
board.cache_hierarchy.membus.respLayer0.utilization          0.0                       # Layer utilization (Ratio)
board.cache_hierarchy.membus.respLayer1.occupancy      2322779                       # Layer occupancy (ticks) (Tick)
board.cache_hierarchy.membus.respLayer1.utilization          0.0                       # Layer utilization (Ratio)
board.cache_hierarchy.membus.snoop_filter.totRequests            0                       # Total number of requests made to the snoop filter. (Count)
board.cache_hierarchy.membus.snoop_filter.hitSingleRequests            0                       # Number of requests hitting in the snoop filter with a single holder of the requested data. (Count)
board.cache_hierarchy.membus.snoop_filter.hitMultiRequests            0                       # Number of requests hitting in the snoop filter with multiple (>1) holders of the requested data. (Count)
board.cache_hierarchy.membus.snoop_filter.totSnoops            0                       # Total number of snoops made to the snoop filter. (Count)
board.cache_hierarchy.membus.snoop_filter.hitSingleSnoops            0                       # Number of snoops hitting in the snoop filter with a single holder of the requested data. (Count)
board.cache_hierarchy.membus.snoop_filter.hitMultiSnoops            0                       # Number of snoops hitting in the snoop filter with multiple (>1) holders of the requested data. (Count)
board.clk_domain.clock                            333                       # Clock period in ticks (Tick)
board.clk_domain.voltage_domain.voltage             1                       # Voltage in Volts (Volt)
board.memory.mem_ctrl.avgPriority_processor.cores.core.inst::samples      1923.00                       # Average QoS priority value for accepted requests (Count)
board.memory.mem_ctrl.avgPriority_processor.cores.core.data::samples      1732.00                       # Average QoS priority value for accepted requests (Count)
board.memory.mem_ctrl.priorityMinLatency 0.000000018750                       # per QoS priority minimum request to response latency (Second)
board.memory.mem_ctrl.priorityMaxLatency 0.000040203033                       # per QoS priority maximum request to response latency (Second)
board.memory.mem_ctrl.numReadWriteTurnArounds           10                       # Number of turnarounds from READ to WRITE (Count)
board.memory.mem_ctrl.numWriteReadTurnArounds           10                       # Number of turnarounds from WRITE to READ (Count)
board.memory.mem_ctrl.numStayReadState           7798                       # Number of times bus staying in READ state (Count)
board.memory.mem_ctrl.numStayWriteState           152                       # Number of times bus staying in WRITE state (Count)
board.memory.mem_ctrl.readReqs                   3691                       # Number of read requests accepted (Count)
board.memory.mem_ctrl.writeReqs                  1351                       # Number of write requests accepted (Count)
board.memory.mem_ctrl.readBursts                 3691                       # Number of controller read bursts, including those serviced by the write queue (Count)
board.memory.mem_ctrl.writeBursts                1351                       # Number of controller write bursts, including those merged in the write queue (Count)
board.memory.mem_ctrl.servicedByWrQ               222                       # Number of controller read bursts serviced by the write queue (Count)
board.memory.mem_ctrl.mergedWrBursts             1165                       # Number of controller write bursts merged with an existing one (Count)
board.memory.mem_ctrl.neitherReadNorWriteReqs            0                       # Number of requests that are neither read nor write (Count)
board.memory.mem_ctrl.avgRdQLen                  2.65                       # Average read queue length when enqueuing ((Count/Tick))
board.memory.mem_ctrl.avgWrQLen                 24.10                       # Average write queue length when enqueuing ((Count/Tick))
board.memory.mem_ctrl.numRdRetry                    0                       # Number of times read queue was full causing retry (Count)
board.memory.mem_ctrl.numWrRetry                    0                       # Number of times write queue was full causing retry (Count)
board.memory.mem_ctrl.readPktSize::0              134                       # Read request sizes (log2) (Count)
board.memory.mem_ctrl.readPktSize::1               19                       # Read request sizes (log2) (Count)
board.memory.mem_ctrl.readPktSize::2              311                       # Read request sizes (log2) (Count)
board.memory.mem_ctrl.readPktSize::3             1304                       # Read request sizes (log2) (Count)
board.memory.mem_ctrl.readPktSize::4                0                       # Read request sizes (log2) (Count)
board.memory.mem_ctrl.readPktSize::5                0                       # Read request sizes (log2) (Count)
board.memory.mem_ctrl.readPktSize::6             1923                       # Read request sizes (log2) (Count)
board.memory.mem_ctrl.writePktSize::0              34                       # Write request sizes (log2) (Count)
board.memory.mem_ctrl.writePktSize::1               6                       # Write request sizes (log2) (Count)
board.memory.mem_ctrl.writePktSize::2             137                       # Write request sizes (log2) (Count)
board.memory.mem_ctrl.writePktSize::3            1174                       # Write request sizes (log2) (Count)
board.memory.mem_ctrl.writePktSize::4               0                       # Write request sizes (log2) (Count)
board.memory.mem_ctrl.writePktSize::5               0                       # Write request sizes (log2) (Count)
board.memory.mem_ctrl.writePktSize::6               0                       # Write request sizes (log2) (Count)
board.memory.mem_ctrl.rdQLenPdf::0               1318                       # What read queue length does an incoming req see (Count)
board.memory.mem_ctrl.rdQLenPdf::1                910                       # What read queue length does an incoming req see (Count)
board.memory.mem_ctrl.rdQLenPdf::2                589                       # What read queue length does an incoming req see (Count)
board.memory.mem_ctrl.rdQLenPdf::3                309                       # What read queue length does an incoming req see (Count)
board.memory.mem_ctrl.rdQLenPdf::4                145                       # What read queue length does an incoming req see (Count)
board.memory.mem_ctrl.rdQLenPdf::5                 78                       # What read queue length does an incoming req see (Count)
board.memory.mem_ctrl.rdQLenPdf::6                 45                       # What read queue length does an incoming req see (Count)
board.memory.mem_ctrl.rdQLenPdf::7                 29                       # What read queue length does an incoming req see (Count)
board.memory.mem_ctrl.rdQLenPdf::8                 16                       # What read queue length does an incoming req see (Count)
board.memory.mem_ctrl.rdQLenPdf::9                 11                       # What read queue length does an incoming req see (Count)
board.memory.mem_ctrl.rdQLenPdf::10                 4                       # What read queue length does an incoming req see (Count)
board.memory.mem_ctrl.rdQLenPdf::11                 4                       # What read queue length does an incoming req see (Count)
board.memory.mem_ctrl.rdQLenPdf::12                 4                       # What read queue length does an incoming req see (Count)
board.memory.mem_ctrl.rdQLenPdf::13                 4                       # What read queue length does an incoming req see (Count)
board.memory.mem_ctrl.rdQLenPdf::14                 3                       # What read queue length does an incoming req see (Count)
board.memory.mem_ctrl.rdQLenPdf::15                 0                       # What read queue length does an incoming req see (Count)
board.memory.mem_ctrl.rdQLenPdf::16                 0                       # What read queue length does an incoming req see (Count)
board.memory.mem_ctrl.rdQLenPdf::17                 0                       # What read queue length does an incoming req see (Count)
board.memory.mem_ctrl.rdQLenPdf::18                 0                       # What read queue length does an incoming req see (Count)
board.memory.mem_ctrl.rdQLenPdf::19                 0                       # What read queue length does an incoming req see (Count)
board.memory.mem_ctrl.rdQLenPdf::20                 0                       # What read queue length does an incoming req see (Count)
board.memory.mem_ctrl.rdQLenPdf::21                 0                       # What read queue length does an incoming req see (Count)
board.memory.mem_ctrl.rdQLenPdf::22                 0                       # What read queue length does an incoming req see (Count)
board.memory.mem_ctrl.rdQLenPdf::23                 0                       # What read queue length does an incoming req see (Count)
board.memory.mem_ctrl.rdQLenPdf::24                 0                       # What read queue length does an incoming req see (Count)
board.memory.mem_ctrl.rdQLenPdf::25                 0                       # What read queue length does an incoming req see (Count)
board.memory.mem_ctrl.rdQLenPdf::26                 0                       # What read queue length does an incoming req see (Count)
board.memory.mem_ctrl.rdQLenPdf::27                 0                       # What read queue length does an incoming req see (Count)
board.memory.mem_ctrl.rdQLenPdf::28                 0                       # What read queue length does an incoming req see (Count)
board.memory.mem_ctrl.rdQLenPdf::29                 0                       # What read queue length does an incoming req see (Count)
board.memory.mem_ctrl.rdQLenPdf::30                 0                       # What read queue length does an incoming req see (Count)
board.memory.mem_ctrl.rdQLenPdf::31                 0                       # What read queue length does an incoming req see (Count)
board.memory.mem_ctrl.wrQLenPdf::0                  1                       # What write queue length does an incoming req see (Count)
board.memory.mem_ctrl.wrQLenPdf::1                  1                       # What write queue length does an incoming req see (Count)
board.memory.mem_ctrl.wrQLenPdf::2                  1                       # What write queue length does an incoming req see (Count)
board.memory.mem_ctrl.wrQLenPdf::3                  1                       # What write queue length does an incoming req see (Count)
board.memory.mem_ctrl.wrQLenPdf::4                  1                       # What write queue length does an incoming req see (Count)
board.memory.mem_ctrl.wrQLenPdf::5                  1                       # What write queue length does an incoming req see (Count)
board.memory.mem_ctrl.wrQLenPdf::6                  1                       # What write queue length does an incoming req see (Count)
board.memory.mem_ctrl.wrQLenPdf::7                  1                       # What write queue length does an incoming req see (Count)
board.memory.mem_ctrl.wrQLenPdf::8                  1                       # What write queue length does an incoming req see (Count)
board.memory.mem_ctrl.wrQLenPdf::9                  1                       # What write queue length does an incoming req see (Count)
board.memory.mem_ctrl.wrQLenPdf::10                 1                       # What write queue length does an incoming req see (Count)
board.memory.mem_ctrl.wrQLenPdf::11                 1                       # What write queue length does an incoming req see (Count)
board.memory.mem_ctrl.wrQLenPdf::12                 1                       # What write queue length does an incoming req see (Count)
board.memory.mem_ctrl.wrQLenPdf::13                 1                       # What write queue length does an incoming req see (Count)
board.memory.mem_ctrl.wrQLenPdf::14                 1                       # What write queue length does an incoming req see (Count)
board.memory.mem_ctrl.wrQLenPdf::15                 2                       # What write queue length does an incoming req see (Count)
board.memory.mem_ctrl.wrQLenPdf::16                 2                       # What write queue length does an incoming req see (Count)
board.memory.mem_ctrl.wrQLenPdf::17                11                       # What write queue length does an incoming req see (Count)
board.memory.mem_ctrl.wrQLenPdf::18                11                       # What write queue length does an incoming req see (Count)
board.memory.mem_ctrl.wrQLenPdf::19                11                       # What write queue length does an incoming req see (Count)
board.memory.mem_ctrl.wrQLenPdf::20                11                       # What write queue length does an incoming req see (Count)
board.memory.mem_ctrl.wrQLenPdf::21                11                       # What write queue length does an incoming req see (Count)
board.memory.mem_ctrl.wrQLenPdf::22                11                       # What write queue length does an incoming req see (Count)
board.memory.mem_ctrl.wrQLenPdf::23                11                       # What write queue length does an incoming req see (Count)
board.memory.mem_ctrl.wrQLenPdf::24                10                       # What write queue length does an incoming req see (Count)
board.memory.mem_ctrl.wrQLenPdf::25                10                       # What write queue length does an incoming req see (Count)
board.memory.mem_ctrl.wrQLenPdf::26                10                       # What write queue length does an incoming req see (Count)
board.memory.mem_ctrl.wrQLenPdf::27                10                       # What write queue length does an incoming req see (Count)
board.memory.mem_ctrl.wrQLenPdf::28                10                       # What write queue length does an incoming req see (Count)
board.memory.mem_ctrl.wrQLenPdf::29                10                       # What write queue length does an incoming req see (Count)
board.memory.mem_ctrl.wrQLenPdf::30                10                       # What write queue length does an incoming req see (Count)
board.memory.mem_ctrl.wrQLenPdf::31                10                       # What write queue length does an incoming req see (Count)
board.memory.mem_ctrl.wrQLenPdf::32                10                       # What write queue length does an incoming req see (Count)
board.memory.mem_ctrl.wrQLenPdf::33                 0                       # What write queue length does an incoming req see (Count)
board.memory.mem_ctrl.wrQLenPdf::34                 0                       # What write queue length does an incoming req see (Count)
board.memory.mem_ctrl.wrQLenPdf::35                 0                       # What write queue length does an incoming req see (Count)
board.memory.mem_ctrl.wrQLenPdf::36                 0                       # What write queue length does an incoming req see (Count)
board.memory.mem_ctrl.wrQLenPdf::37                 0                       # What write queue length does an incoming req see (Count)
board.memory.mem_ctrl.wrQLenPdf::38                 0                       # What write queue length does an incoming req see (Count)
board.memory.mem_ctrl.wrQLenPdf::39                 0                       # What write queue length does an incoming req see (Count)
board.memory.mem_ctrl.wrQLenPdf::40                 0                       # What write queue length does an incoming req see (Count)
board.memory.mem_ctrl.wrQLenPdf::41                 0                       # What write queue length does an incoming req see (Count)
board.memory.mem_ctrl.wrQLenPdf::42                 0                       # What write queue length does an incoming req see (Count)
board.memory.mem_ctrl.wrQLenPdf::43                 0                       # What write queue length does an incoming req see (Count)
board.memory.mem_ctrl.wrQLenPdf::44                 0                       # What write queue length does an incoming req see (Count)
board.memory.mem_ctrl.wrQLenPdf::45                 0                       # What write queue length does an incoming req see (Count)
board.memory.mem_ctrl.wrQLenPdf::46                 0                       # What write queue length does an incoming req see (Count)
board.memory.mem_ctrl.wrQLenPdf::47                 0                       # What write queue length does an incoming req see (Count)
board.memory.mem_ctrl.wrQLenPdf::48                 0                       # What write queue length does an incoming req see (Count)
board.memory.mem_ctrl.wrQLenPdf::49                 0                       # What write queue length does an incoming req see (Count)
board.memory.mem_ctrl.wrQLenPdf::50                 0                       # What write queue length does an incoming req see (Count)
board.memory.mem_ctrl.wrQLenPdf::51                 0                       # What write queue length does an incoming req see (Count)
board.memory.mem_ctrl.wrQLenPdf::52                 0                       # What write queue length does an incoming req see (Count)
board.memory.mem_ctrl.wrQLenPdf::53                 0                       # What write queue length does an incoming req see (Count)
board.memory.mem_ctrl.wrQLenPdf::54                 0                       # What write queue length does an incoming req see (Count)
board.memory.mem_ctrl.wrQLenPdf::55                 0                       # What write queue length does an incoming req see (Count)
board.memory.mem_ctrl.wrQLenPdf::56                 0                       # What write queue length does an incoming req see (Count)
board.memory.mem_ctrl.wrQLenPdf::57                 0                       # What write queue length does an incoming req see (Count)
board.memory.mem_ctrl.wrQLenPdf::58                 0                       # What write queue length does an incoming req see (Count)
board.memory.mem_ctrl.wrQLenPdf::59                 0                       # What write queue length does an incoming req see (Count)
board.memory.mem_ctrl.wrQLenPdf::60                 0                       # What write queue length does an incoming req see (Count)
board.memory.mem_ctrl.wrQLenPdf::61                 0                       # What write queue length does an incoming req see (Count)
board.memory.mem_ctrl.wrQLenPdf::62                 0                       # What write queue length does an incoming req see (Count)
board.memory.mem_ctrl.wrQLenPdf::63                 0                       # What write queue length does an incoming req see (Count)
board.memory.mem_ctrl.rdPerTurnAround::samples           10                       # Reads before turning the bus around for writes (Count)
board.memory.mem_ctrl.rdPerTurnAround::mean   325.400000                       # Reads before turning the bus around for writes (Count)
board.memory.mem_ctrl.rdPerTurnAround::gmean   249.873762                       # Reads before turning the bus around for writes (Count)
board.memory.mem_ctrl.rdPerTurnAround::stdev   259.243858                       # Reads before turning the bus around for writes (Count)
board.memory.mem_ctrl.rdPerTurnAround::96-127            1     10.00%     10.00% # Reads before turning the bus around for writes (Count)
board.memory.mem_ctrl.rdPerTurnAround::128-159            4     40.00%     50.00% # Reads before turning the bus around for writes (Count)
board.memory.mem_ctrl.rdPerTurnAround::256-287            2     20.00%     70.00% # Reads before turning the bus around for writes (Count)
board.memory.mem_ctrl.rdPerTurnAround::576-607            1     10.00%     80.00% # Reads before turning the bus around for writes (Count)
board.memory.mem_ctrl.rdPerTurnAround::672-703            1     10.00%     90.00% # Reads before turning the bus around for writes (Count)
board.memory.mem_ctrl.rdPerTurnAround::800-831            1     10.00%    100.00% # Reads before turning the bus around for writes (Count)
board.memory.mem_ctrl.rdPerTurnAround::total           10                       # Reads before turning the bus around for writes (Count)
board.memory.mem_ctrl.wrPerTurnAround::samples           10                       # Writes before turning the bus around for reads (Count)
board.memory.mem_ctrl.wrPerTurnAround::mean    16.200000                       # Writes before turning the bus around for reads (Count)
board.memory.mem_ctrl.wrPerTurnAround::gmean    16.189567                       # Writes before turning the bus around for reads (Count)
board.memory.mem_ctrl.wrPerTurnAround::stdev     0.632456                       # Writes before turning the bus around for reads (Count)
board.memory.mem_ctrl.wrPerTurnAround::16            9     90.00%     90.00% # Writes before turning the bus around for reads (Count)
board.memory.mem_ctrl.wrPerTurnAround::18            1     10.00%    100.00% # Writes before turning the bus around for reads (Count)
board.memory.mem_ctrl.wrPerTurnAround::total           10                       # Writes before turning the bus around for reads (Count)
board.memory.mem_ctrl.bytesReadWrQ              14208                       # Total number of bytes read from write queue (Byte)
board.memory.mem_ctrl.bytesReadSys             134913                       # Total read bytes from the system interface side (Byte)
board.memory.mem_ctrl.bytesWrittenSys            9986                       # Total written bytes from the system interface side (Byte)
board.memory.mem_ctrl.avgRdBWSys         1710327734.78727341                       # Average system read bandwidth in Byte/s ((Byte/Second))
board.memory.mem_ctrl.avgWrBWSys         126595159.54419301                       # Average system write bandwidth in Byte/s ((Byte/Second))
board.memory.mem_ctrl.totGap                 78879042                       # Total gap between requests (Tick)
board.memory.mem_ctrl.avgGap                 15644.40                       # Average gap between requests ((Tick/Count))
board.memory.mem_ctrl.requestorReadBytes::processor.cores.core.inst       123072                       # Per-requestor bytes read from memory (Byte)
board.memory.mem_ctrl.requestorReadBytes::processor.cores.core.data        10343                       # Per-requestor bytes read from memory (Byte)
board.memory.mem_ctrl.requestorWriteBytes::processor.cores.core.data         1202                       # Per-requestor bytes write to memory (Byte)
board.memory.mem_ctrl.requestorReadRate::processor.cores.core.inst 1560216250.292701959610                       # Per-requestor bytes read from memory rate ((Byte/Second))
board.memory.mem_ctrl.requestorReadRate::processor.cores.core.data 131120942.836529970169                       # Per-requestor bytes read from memory rate ((Byte/Second))
board.memory.mem_ctrl.requestorWriteRate::processor.cores.core.data 15238071.477280192077                       # Per-requestor bytes write to memory rate ((Byte/Second))
board.memory.mem_ctrl.requestorReadAccesses::processor.cores.core.inst         1923                       # Per-requestor read serviced memory accesses (Count)
board.memory.mem_ctrl.requestorReadAccesses::processor.cores.core.data         1768                       # Per-requestor read serviced memory accesses (Count)
board.memory.mem_ctrl.requestorWriteAccesses::processor.cores.core.data         1351                       # Per-requestor write serviced memory accesses (Count)
board.memory.mem_ctrl.requestorReadTotalLat::processor.cores.core.inst     52461831                       # Per-requestor read total memory access latency (Tick)
board.memory.mem_ctrl.requestorReadTotalLat::processor.cores.core.data     64352691                       # Per-requestor read total memory access latency (Tick)
board.memory.mem_ctrl.requestorWriteTotalLat::processor.cores.core.data   1492746838                       # Per-requestor write total memory access latency (Tick)
board.memory.mem_ctrl.requestorReadAvgLat::processor.cores.core.inst     27281.24                       # Per-requestor read average memory access latency ((Tick/Count))
board.memory.mem_ctrl.requestorReadAvgLat::processor.cores.core.data     36398.58                       # Per-requestor read average memory access latency ((Tick/Count))
board.memory.mem_ctrl.requestorWriteAvgLat::processor.cores.core.data   1104919.94                       # Per-requestor write average memory access latency ((Tick/Count))
board.memory.mem_ctrl.dram.bytesRead::processor.cores.core.inst       122944                       # Number of bytes read from this memory (Byte)
board.memory.mem_ctrl.dram.bytesRead::processor.cores.core.data        11841                       # Number of bytes read from this memory (Byte)
board.memory.mem_ctrl.dram.bytesRead::total       134785                       # Number of bytes read from this memory (Byte)
board.memory.mem_ctrl.dram.bytesInstRead::processor.cores.core.inst       122944                       # Number of instructions bytes read from this memory (Byte)
board.memory.mem_ctrl.dram.bytesInstRead::total       122944                       # Number of instructions bytes read from this memory (Byte)
board.memory.mem_ctrl.dram.bytesWritten::processor.cores.core.data         9986                       # Number of bytes written to this memory (Byte)
board.memory.mem_ctrl.dram.bytesWritten::total         9986                       # Number of bytes written to this memory (Byte)
board.memory.mem_ctrl.dram.numReads::processor.cores.core.inst         1921                       # Number of read requests responded to by this memory (Count)
board.memory.mem_ctrl.dram.numReads::processor.cores.core.data         1768                       # Number of read requests responded to by this memory (Count)
board.memory.mem_ctrl.dram.numReads::total         3689                       # Number of read requests responded to by this memory (Count)
board.memory.mem_ctrl.dram.numWrites::processor.cores.core.data         1351                       # Number of write requests responded to by this memory (Count)
board.memory.mem_ctrl.dram.numWrites::total         1351                       # Number of write requests responded to by this memory (Count)
board.memory.mem_ctrl.dram.bwRead::processor.cores.core.inst   1558593560                       # Total read bandwidth from this memory ((Byte/Second))
board.memory.mem_ctrl.dram.bwRead::processor.cores.core.data    150111484                       # Total read bandwidth from this memory ((Byte/Second))
board.memory.mem_ctrl.dram.bwRead::total   1708705045                       # Total read bandwidth from this memory ((Byte/Second))
board.memory.mem_ctrl.dram.bwInstRead::processor.cores.core.inst   1558593560                       # Instruction read bandwidth from this memory ((Byte/Second))
board.memory.mem_ctrl.dram.bwInstRead::total   1558593560                       # Instruction read bandwidth from this memory ((Byte/Second))
board.memory.mem_ctrl.dram.bwWrite::processor.cores.core.data    126595160                       # Write bandwidth from this memory ((Byte/Second))
board.memory.mem_ctrl.dram.bwWrite::total    126595160                       # Write bandwidth from this memory ((Byte/Second))
board.memory.mem_ctrl.dram.bwTotal::processor.cores.core.inst   1558593560                       # Total bandwidth to/from this memory ((Byte/Second))
board.memory.mem_ctrl.dram.bwTotal::processor.cores.core.data    276706644                       # Total bandwidth to/from this memory ((Byte/Second))
board.memory.mem_ctrl.dram.bwTotal::total   1835300205                       # Total bandwidth to/from this memory ((Byte/Second))
board.memory.mem_ctrl.dram.readBursts            3469                       # Number of DRAM read bursts (Count)
board.memory.mem_ctrl.dram.writeBursts            162                       # Number of DRAM write bursts (Count)
board.memory.mem_ctrl.dram.perBankRdBursts::0          347                       # Per bank write bursts (Count)
board.memory.mem_ctrl.dram.perBankRdBursts::1            0                       # Per bank write bursts (Count)
board.memory.mem_ctrl.dram.perBankRdBursts::2            1                       # Per bank write bursts (Count)
board.memory.mem_ctrl.dram.perBankRdBursts::3          132                       # Per bank write bursts (Count)
board.memory.mem_ctrl.dram.perBankRdBursts::4          100                       # Per bank write bursts (Count)
board.memory.mem_ctrl.dram.perBankRdBursts::5           53                       # Per bank write bursts (Count)
board.memory.mem_ctrl.dram.perBankRdBursts::6          326                       # Per bank write bursts (Count)
board.memory.mem_ctrl.dram.perBankRdBursts::7          279                       # Per bank write bursts (Count)
board.memory.mem_ctrl.dram.perBankRdBursts::8          239                       # Per bank write bursts (Count)
board.memory.mem_ctrl.dram.perBankRdBursts::9          430                       # Per bank write bursts (Count)
board.memory.mem_ctrl.dram.perBankRdBursts::10          478                       # Per bank write bursts (Count)
board.memory.mem_ctrl.dram.perBankRdBursts::11          703                       # Per bank write bursts (Count)
board.memory.mem_ctrl.dram.perBankRdBursts::12           48                       # Per bank write bursts (Count)
board.memory.mem_ctrl.dram.perBankRdBursts::13          237                       # Per bank write bursts (Count)
board.memory.mem_ctrl.dram.perBankRdBursts::14           34                       # Per bank write bursts (Count)
board.memory.mem_ctrl.dram.perBankRdBursts::15           62                       # Per bank write bursts (Count)
board.memory.mem_ctrl.dram.perBankWrBursts::0            0                       # Per bank write bursts (Count)
board.memory.mem_ctrl.dram.perBankWrBursts::1            0                       # Per bank write bursts (Count)
board.memory.mem_ctrl.dram.perBankWrBursts::2            0                       # Per bank write bursts (Count)
board.memory.mem_ctrl.dram.perBankWrBursts::3            0                       # Per bank write bursts (Count)
board.memory.mem_ctrl.dram.perBankWrBursts::4            0                       # Per bank write bursts (Count)
board.memory.mem_ctrl.dram.perBankWrBursts::5            0                       # Per bank write bursts (Count)
board.memory.mem_ctrl.dram.perBankWrBursts::6            0                       # Per bank write bursts (Count)
board.memory.mem_ctrl.dram.perBankWrBursts::7            0                       # Per bank write bursts (Count)
board.memory.mem_ctrl.dram.perBankWrBursts::8            0                       # Per bank write bursts (Count)
board.memory.mem_ctrl.dram.perBankWrBursts::9           51                       # Per bank write bursts (Count)
board.memory.mem_ctrl.dram.perBankWrBursts::10           30                       # Per bank write bursts (Count)
board.memory.mem_ctrl.dram.perBankWrBursts::11           41                       # Per bank write bursts (Count)
board.memory.mem_ctrl.dram.perBankWrBursts::12            5                       # Per bank write bursts (Count)
board.memory.mem_ctrl.dram.perBankWrBursts::13           35                       # Per bank write bursts (Count)
board.memory.mem_ctrl.dram.perBankWrBursts::14            0                       # Per bank write bursts (Count)
board.memory.mem_ctrl.dram.perBankWrBursts::15            0                       # Per bank write bursts (Count)
board.memory.mem_ctrl.dram.totQLat           51770772                       # Total ticks spent queuing (Tick)
board.memory.mem_ctrl.dram.totBusLat         17345000                       # Total ticks spent in databus transfers (Tick)
board.memory.mem_ctrl.dram.totMemAccLat     116814522                       # Total ticks spent from burst creation until serviced by the DRAM (Tick)
board.memory.mem_ctrl.dram.avgQLat           14923.83                       # Average queueing delay per DRAM burst ((Tick/Count))
board.memory.mem_ctrl.dram.avgBusLat          5000.00                       # Average bus latency per DRAM burst ((Tick/Count))
board.memory.mem_ctrl.dram.avgMemAccLat      33673.83                       # Average memory access latency per DRAM burst ((Tick/Count))
board.memory.mem_ctrl.dram.readRowHits           2992                       # Number of row buffer hits during reads (Count)
board.memory.mem_ctrl.dram.writeRowHits           157                       # Number of row buffer hits during writes (Count)
board.memory.mem_ctrl.dram.readRowHitRate        86.25                       # Row buffer hit rate for reads (Ratio)
board.memory.mem_ctrl.dram.writeRowHitRate        96.91                       # Row buffer hit rate for writes (Ratio)
board.memory.mem_ctrl.dram.bytesPerActivate::samples          478                       # Bytes accessed per row activation (Byte)
board.memory.mem_ctrl.dram.bytesPerActivate::mean   482.543933                       # Bytes accessed per row activation (Byte)
board.memory.mem_ctrl.dram.bytesPerActivate::gmean   296.481343                       # Bytes accessed per row activation (Byte)
board.memory.mem_ctrl.dram.bytesPerActivate::stdev   397.371602                       # Bytes accessed per row activation (Byte)
board.memory.mem_ctrl.dram.bytesPerActivate::0-127          109     22.80%     22.80% # Bytes accessed per row activation (Byte)
board.memory.mem_ctrl.dram.bytesPerActivate::128-255           92     19.25%     42.05% # Bytes accessed per row activation (Byte)
board.memory.mem_ctrl.dram.bytesPerActivate::256-383           44      9.21%     51.26% # Bytes accessed per row activation (Byte)
board.memory.mem_ctrl.dram.bytesPerActivate::384-511           35      7.32%     58.58% # Bytes accessed per row activation (Byte)
board.memory.mem_ctrl.dram.bytesPerActivate::512-639           18      3.77%     62.34% # Bytes accessed per row activation (Byte)
board.memory.mem_ctrl.dram.bytesPerActivate::640-767           19      3.97%     66.32% # Bytes accessed per row activation (Byte)
board.memory.mem_ctrl.dram.bytesPerActivate::768-895           14      2.93%     69.25% # Bytes accessed per row activation (Byte)
board.memory.mem_ctrl.dram.bytesPerActivate::896-1023           11      2.30%     71.55% # Bytes accessed per row activation (Byte)
board.memory.mem_ctrl.dram.bytesPerActivate::1024-1151          136     28.45%    100.00% # Bytes accessed per row activation (Byte)
board.memory.mem_ctrl.dram.bytesPerActivate::total          478                       # Bytes accessed per row activation (Byte)
board.memory.mem_ctrl.dram.dramBytesRead       222016                       # Total bytes read (Byte)
board.memory.mem_ctrl.dram.dramBytesWritten        10368                       # Total bytes written (Byte)
board.memory.mem_ctrl.dram.avgRdBW        2814.555472                       # Average DRAM read bandwidth in MiBytes/s ((Byte/Second))
board.memory.mem_ctrl.dram.avgWrBW         131.437874                       # Average DRAM write bandwidth in MiBytes/s ((Byte/Second))
board.memory.mem_ctrl.dram.peakBW            12800.00                       # Theoretical peak bandwidth in MiByte/s ((Byte/Second))
board.memory.mem_ctrl.dram.busUtil              23.02                       # Data bus utilization in percentage (Ratio)
board.memory.mem_ctrl.dram.busUtilRead          21.99                       # Data bus utilization in percentage for reads (Ratio)
board.memory.mem_ctrl.dram.busUtilWrite          1.03                       # Data bus utilization in percentage for writes (Ratio)
board.memory.mem_ctrl.dram.pageHitRate          86.73                       # Row buffer hit rate, read and write combined (Ratio)
board.memory.mem_ctrl.dram.power_state.pwrStateResidencyTicks::UNDEFINED     78881373                       # Cumulative time (in ticks) in various power states (Tick)
board.memory.mem_ctrl.dram.rank0.actEnergy       871080                       # Energy for activate commands per rank (pJ) (Joule)
board.memory.mem_ctrl.dram.rank0.preEnergy       455400                       # Energy for precharge commands per rank (pJ) (Joule)
board.memory.mem_ctrl.dram.rank0.readEnergy      8839320                       # Energy for read commands per rank (pJ) (Joule)
board.memory.mem_ctrl.dram.rank0.writeEnergy            0                       # Energy for write commands per rank (pJ) (Joule)
board.memory.mem_ctrl.dram.rank0.refreshEnergy 6146400.000000                       # Energy for refresh commands per rank (pJ) (Joule)
board.memory.mem_ctrl.dram.rank0.actBackEnergy     33808410                       # Energy for active background per rank (pJ) (Joule)
board.memory.mem_ctrl.dram.rank0.preBackEnergy      1820640                       # Energy for precharge background per rank (pJ) (Joule)
board.memory.mem_ctrl.dram.rank0.actPowerDownEnergy            0                       # Energy for active power-down per rank (pJ) (Joule)
board.memory.mem_ctrl.dram.rank0.prePowerDownEnergy            0                       # Energy for precharge power-down per rank (pJ) (Joule)
board.memory.mem_ctrl.dram.rank0.selfRefreshEnergy            0                       # Energy for self refresh per rank (pJ) (Joule)
board.memory.mem_ctrl.dram.rank0.totalEnergy     51941250                       # Total energy per rank (pJ) (Joule)
board.memory.mem_ctrl.dram.rank0.averagePower   658.472945                       # Core power per rank (mW) (Watt)
board.memory.mem_ctrl.dram.rank0.totalIdleTime            0                       # Total Idle time Per DRAM Rank (Tick)
board.memory.mem_ctrl.dram.rank0.pwrStateTime::IDLE      4148069                       # Time in different power states (Tick)
board.memory.mem_ctrl.dram.rank0.pwrStateTime::REF      2600000                       # Time in different power states (Tick)
board.memory.mem_ctrl.dram.rank0.pwrStateTime::SREF            0                       # Time in different power states (Tick)
board.memory.mem_ctrl.dram.rank0.pwrStateTime::PRE_PDN            0                       # Time in different power states (Tick)
board.memory.mem_ctrl.dram.rank0.pwrStateTime::ACT     72133304                       # Time in different power states (Tick)
board.memory.mem_ctrl.dram.rank0.pwrStateTime::ACT_PDN            0                       # Time in different power states (Tick)
board.memory.mem_ctrl.dram.rank1.actEnergy      2570400                       # Energy for activate commands per rank (pJ) (Joule)
board.memory.mem_ctrl.dram.rank1.preEnergy      1358610                       # Energy for precharge commands per rank (pJ) (Joule)
board.memory.mem_ctrl.dram.rank1.readEnergy     15922200                       # Energy for read commands per rank (pJ) (Joule)
board.memory.mem_ctrl.dram.rank1.writeEnergy       845640                       # Energy for write commands per rank (pJ) (Joule)
board.memory.mem_ctrl.dram.rank1.refreshEnergy 6146400.000000                       # Energy for refresh commands per rank (pJ) (Joule)
board.memory.mem_ctrl.dram.rank1.actBackEnergy     34591020                       # Energy for active background per rank (pJ) (Joule)
board.memory.mem_ctrl.dram.rank1.preBackEnergy      1161600                       # Energy for precharge background per rank (pJ) (Joule)
board.memory.mem_ctrl.dram.rank1.actPowerDownEnergy            0                       # Energy for active power-down per rank (pJ) (Joule)
board.memory.mem_ctrl.dram.rank1.prePowerDownEnergy            0                       # Energy for precharge power-down per rank (pJ) (Joule)
board.memory.mem_ctrl.dram.rank1.selfRefreshEnergy            0                       # Energy for self refresh per rank (pJ) (Joule)
board.memory.mem_ctrl.dram.rank1.totalEnergy     62595870                       # Total energy per rank (pJ) (Joule)
board.memory.mem_ctrl.dram.rank1.averagePower   793.544377                       # Core power per rank (mW) (Watt)
board.memory.mem_ctrl.dram.rank1.totalIdleTime            0                       # Total Idle time Per DRAM Rank (Tick)
board.memory.mem_ctrl.dram.rank1.pwrStateTime::IDLE      2720323                       # Time in different power states (Tick)
board.memory.mem_ctrl.dram.rank1.pwrStateTime::REF      2600000                       # Time in different power states (Tick)
board.memory.mem_ctrl.dram.rank1.pwrStateTime::SREF            0                       # Time in different power states (Tick)
board.memory.mem_ctrl.dram.rank1.pwrStateTime::PRE_PDN            0                       # Time in different power states (Tick)
board.memory.mem_ctrl.dram.rank1.pwrStateTime::ACT     73561050                       # Time in different power states (Tick)
board.memory.mem_ctrl.dram.rank1.pwrStateTime::ACT_PDN            0                       # Time in different power states (Tick)
board.memory.mem_ctrl.power_state.pwrStateResidencyTicks::UNDEFINED     78881373                       # Cumulative time (in ticks) in various power states (Tick)
board.processor.cores.core.numCycles           236882                       # Number of cpu cycles simulated (Cycle)
board.processor.cores.core.cpi              36.137605                       # CPI: cycles per instruction (core level) ((Cycle/Count))
board.processor.cores.core.ipc               0.027672                       # IPC: instructions per cycle (core level) ((Count/Cycle))
board.processor.cores.core.numWorkItemsStarted            0                       # Number of work items this cpu started (Count)
board.processor.cores.core.numWorkItemsCompleted            0                       # Number of work items this cpu completed (Count)
board.processor.cores.core.instsAdded           20111                       # Number of instructions added to the IQ (excludes non-spec) (Count)
board.processor.cores.core.nonSpecInstsAdded           68                       # Number of non-speculative instructions added to the IQ (Count)
board.processor.cores.core.instsIssued          18906                       # Number of instructions issued (Count)
board.processor.cores.core.squashedInstsIssued            8                       # Number of squashed instructions issued (Count)
board.processor.cores.core.squashedInstsExamined         7181                       # Number of squashed instructions iterated over during squash; mainly for profiling (Count)
board.processor.cores.core.squashedOperandsExamined        10932                       # Number of squashed operands that are examined and possibly removed from graph (Count)
board.processor.cores.core.squashedNonSpecRemoved           68                       # Number of squashed non-spec instructions that were removed (Count)
board.processor.cores.core.numIssuedDist::samples        85403                       # Number of insts issued each cycle (Count)
board.processor.cores.core.numIssuedDist::mean     0.221374                       # Number of insts issued each cycle (Count)
board.processor.cores.core.numIssuedDist::stdev     0.882162                       # Number of insts issued each cycle (Count)
board.processor.cores.core.numIssuedDist::underflows            0      0.00%      0.00% # Number of insts issued each cycle (Count)
board.processor.cores.core.numIssuedDist::0        77786     91.08%     91.08% # Number of insts issued each cycle (Count)
board.processor.cores.core.numIssuedDist::1         3244      3.80%     94.88% # Number of insts issued each cycle (Count)
board.processor.cores.core.numIssuedDist::2         1599      1.87%     96.75% # Number of insts issued each cycle (Count)
board.processor.cores.core.numIssuedDist::3          798      0.93%     97.69% # Number of insts issued each cycle (Count)
board.processor.cores.core.numIssuedDist::4          777      0.91%     98.60% # Number of insts issued each cycle (Count)
board.processor.cores.core.numIssuedDist::5          560      0.66%     99.25% # Number of insts issued each cycle (Count)
board.processor.cores.core.numIssuedDist::6          373      0.44%     99.69% # Number of insts issued each cycle (Count)
board.processor.cores.core.numIssuedDist::7          204      0.24%     99.93% # Number of insts issued each cycle (Count)
board.processor.cores.core.numIssuedDist::8           62      0.07%    100.00% # Number of insts issued each cycle (Count)
board.processor.cores.core.numIssuedDist::overflows            0      0.00%    100.00% # Number of insts issued each cycle (Count)
board.processor.cores.core.numIssuedDist::min_value            0                       # Number of insts issued each cycle (Count)
board.processor.cores.core.numIssuedDist::max_value            8                       # Number of insts issued each cycle (Count)
board.processor.cores.core.numIssuedDist::total        85403                       # Number of insts issued each cycle (Count)
board.processor.cores.core.statFuBusy::No_OpClass            0      0.00%      0.00% # attempts to use FU when none available (Count)
board.processor.cores.core.statFuBusy::IntAlu          116     81.12%     81.12% # attempts to use FU when none available (Count)
board.processor.cores.core.statFuBusy::IntMult            0      0.00%     81.12% # attempts to use FU when none available (Count)
board.processor.cores.core.statFuBusy::IntDiv            0      0.00%     81.12% # attempts to use FU when none available (Count)
board.processor.cores.core.statFuBusy::FloatAdd            0      0.00%     81.12% # attempts to use FU when none available (Count)
board.processor.cores.core.statFuBusy::FloatCmp            0      0.00%     81.12% # attempts to use FU when none available (Count)
board.processor.cores.core.statFuBusy::FloatCvt            0      0.00%     81.12% # attempts to use FU when none available (Count)
board.processor.cores.core.statFuBusy::FloatMult            0      0.00%     81.12% # attempts to use FU when none available (Count)
board.processor.cores.core.statFuBusy::FloatMultAcc            0      0.00%     81.12% # attempts to use FU when none available (Count)
board.processor.cores.core.statFuBusy::FloatDiv            0      0.00%     81.12% # attempts to use FU when none available (Count)
board.processor.cores.core.statFuBusy::FloatMisc            0      0.00%     81.12% # attempts to use FU when none available (Count)
board.processor.cores.core.statFuBusy::FloatSqrt            0      0.00%     81.12% # attempts to use FU when none available (Count)
board.processor.cores.core.statFuBusy::SimdAdd            0      0.00%     81.12% # attempts to use FU when none available (Count)
board.processor.cores.core.statFuBusy::SimdAddAcc            0      0.00%     81.12% # attempts to use FU when none available (Count)
board.processor.cores.core.statFuBusy::SimdAlu           10      6.99%     88.11% # attempts to use FU when none available (Count)
board.processor.cores.core.statFuBusy::SimdCmp            0      0.00%     88.11% # attempts to use FU when none available (Count)
board.processor.cores.core.statFuBusy::SimdCvt            0      0.00%     88.11% # attempts to use FU when none available (Count)
board.processor.cores.core.statFuBusy::SimdMisc            0      0.00%     88.11% # attempts to use FU when none available (Count)
board.processor.cores.core.statFuBusy::SimdMult            0      0.00%     88.11% # attempts to use FU when none available (Count)
board.processor.cores.core.statFuBusy::SimdMultAcc            0      0.00%     88.11% # attempts to use FU when none available (Count)
board.processor.cores.core.statFuBusy::SimdMatMultAcc            0      0.00%     88.11% # attempts to use FU when none available (Count)
board.processor.cores.core.statFuBusy::SimdShift            0      0.00%     88.11% # attempts to use FU when none available (Count)
board.processor.cores.core.statFuBusy::SimdShiftAcc            0      0.00%     88.11% # attempts to use FU when none available (Count)
board.processor.cores.core.statFuBusy::SimdDiv            0      0.00%     88.11% # attempts to use FU when none available (Count)
board.processor.cores.core.statFuBusy::SimdSqrt            0      0.00%     88.11% # attempts to use FU when none available (Count)
board.processor.cores.core.statFuBusy::SimdFloatAdd            0      0.00%     88.11% # attempts to use FU when none available (Count)
board.processor.cores.core.statFuBusy::SimdFloatAlu            0      0.00%     88.11% # attempts to use FU when none available (Count)
board.processor.cores.core.statFuBusy::SimdFloatCmp            0      0.00%     88.11% # attempts to use FU when none available (Count)
board.processor.cores.core.statFuBusy::SimdFloatCvt            0      0.00%     88.11% # attempts to use FU when none available (Count)
board.processor.cores.core.statFuBusy::SimdFloatDiv            0      0.00%     88.11% # attempts to use FU when none available (Count)
board.processor.cores.core.statFuBusy::SimdFloatMisc            0      0.00%     88.11% # attempts to use FU when none available (Count)
board.processor.cores.core.statFuBusy::SimdFloatMult            0      0.00%     88.11% # attempts to use FU when none available (Count)
board.processor.cores.core.statFuBusy::SimdFloatMultAcc            0      0.00%     88.11% # attempts to use FU when none available (Count)
board.processor.cores.core.statFuBusy::SimdFloatMatMultAcc            0      0.00%     88.11% # attempts to use FU when none available (Count)
board.processor.cores.core.statFuBusy::SimdFloatSqrt            0      0.00%     88.11% # attempts to use FU when none available (Count)
board.processor.cores.core.statFuBusy::SimdReduceAdd            0      0.00%     88.11% # attempts to use FU when none available (Count)
board.processor.cores.core.statFuBusy::SimdReduceAlu            0      0.00%     88.11% # attempts to use FU when none available (Count)
board.processor.cores.core.statFuBusy::SimdReduceCmp            0      0.00%     88.11% # attempts to use FU when none available (Count)
board.processor.cores.core.statFuBusy::SimdFloatReduceAdd            0      0.00%     88.11% # attempts to use FU when none available (Count)
board.processor.cores.core.statFuBusy::SimdFloatReduceCmp            0      0.00%     88.11% # attempts to use FU when none available (Count)
board.processor.cores.core.statFuBusy::SimdAes            0      0.00%     88.11% # attempts to use FU when none available (Count)
board.processor.cores.core.statFuBusy::SimdAesMix            0      0.00%     88.11% # attempts to use FU when none available (Count)
board.processor.cores.core.statFuBusy::SimdSha1Hash            0      0.00%     88.11% # attempts to use FU when none available (Count)
board.processor.cores.core.statFuBusy::SimdSha1Hash2            0      0.00%     88.11% # attempts to use FU when none available (Count)
board.processor.cores.core.statFuBusy::SimdSha256Hash            0      0.00%     88.11% # attempts to use FU when none available (Count)
board.processor.cores.core.statFuBusy::SimdSha256Hash2            0      0.00%     88.11% # attempts to use FU when none available (Count)
board.processor.cores.core.statFuBusy::SimdShaSigma2            0      0.00%     88.11% # attempts to use FU when none available (Count)
board.processor.cores.core.statFuBusy::SimdShaSigma3            0      0.00%     88.11% # attempts to use FU when none available (Count)
board.processor.cores.core.statFuBusy::SimdPredAlu            0      0.00%     88.11% # attempts to use FU when none available (Count)
board.processor.cores.core.statFuBusy::Matrix            0      0.00%     88.11% # attempts to use FU when none available (Count)
board.processor.cores.core.statFuBusy::MatrixMov            0      0.00%     88.11% # attempts to use FU when none available (Count)
board.processor.cores.core.statFuBusy::MatrixOP            0      0.00%     88.11% # attempts to use FU when none available (Count)
board.processor.cores.core.statFuBusy::MemRead            4      2.80%     90.91% # attempts to use FU when none available (Count)
board.processor.cores.core.statFuBusy::MemWrite            5      3.50%     94.41% # attempts to use FU when none available (Count)
board.processor.cores.core.statFuBusy::FloatMemRead            3      2.10%     96.50% # attempts to use FU when none available (Count)
board.processor.cores.core.statFuBusy::FloatMemWrite            5      3.50%    100.00% # attempts to use FU when none available (Count)
board.processor.cores.core.statFuBusy::IprAccess            0      0.00%    100.00% # attempts to use FU when none available (Count)
board.processor.cores.core.statFuBusy::InstPrefetch            0      0.00%    100.00% # attempts to use FU when none available (Count)
board.processor.cores.core.statFuBusy::SimdUnitStrideLoad            0      0.00%    100.00% # attempts to use FU when none available (Count)
board.processor.cores.core.statFuBusy::SimdUnitStrideStore            0      0.00%    100.00% # attempts to use FU when none available (Count)
board.processor.cores.core.statFuBusy::SimdUnitStrideMaskLoad            0      0.00%    100.00% # attempts to use FU when none available (Count)
board.processor.cores.core.statFuBusy::SimdUnitStrideMaskStore            0      0.00%    100.00% # attempts to use FU when none available (Count)
board.processor.cores.core.statFuBusy::SimdStridedLoad            0      0.00%    100.00% # attempts to use FU when none available (Count)
board.processor.cores.core.statFuBusy::SimdStridedStore            0      0.00%    100.00% # attempts to use FU when none available (Count)
board.processor.cores.core.statFuBusy::SimdIndexedLoad            0      0.00%    100.00% # attempts to use FU when none available (Count)
board.processor.cores.core.statFuBusy::SimdIndexedStore            0      0.00%    100.00% # attempts to use FU when none available (Count)
board.processor.cores.core.statFuBusy::SimdWholeRegisterLoad            0      0.00%    100.00% # attempts to use FU when none available (Count)
board.processor.cores.core.statFuBusy::SimdWholeRegisterStore            0      0.00%    100.00% # attempts to use FU when none available (Count)
board.processor.cores.core.statFuBusy::SimdUnitStrideFaultOnlyFirstLoad            0      0.00%    100.00% # attempts to use FU when none available (Count)
board.processor.cores.core.statFuBusy::SimdUnitStrideSegmentedLoad            0      0.00%    100.00% # attempts to use FU when none available (Count)
board.processor.cores.core.statFuBusy::SimdUnitStrideSegmentedStore            0      0.00%    100.00% # attempts to use FU when none available (Count)
board.processor.cores.core.statFuBusy::SimdExt            0      0.00%    100.00% # attempts to use FU when none available (Count)
board.processor.cores.core.statFuBusy::SimdFloatExt            0      0.00%    100.00% # attempts to use FU when none available (Count)
board.processor.cores.core.statFuBusy::SimdConfig            0      0.00%    100.00% # attempts to use FU when none available (Count)
board.processor.cores.core.statIssuedInstType_0::No_OpClass          131      0.69%      0.69% # Number of instructions issued per FU type, per thread (Count)
board.processor.cores.core.statIssuedInstType_0::IntAlu        14487     76.63%     77.32% # Number of instructions issued per FU type, per thread (Count)
board.processor.cores.core.statIssuedInstType_0::IntMult            4      0.02%     77.34% # Number of instructions issued per FU type, per thread (Count)
board.processor.cores.core.statIssuedInstType_0::IntDiv           23      0.12%     77.46% # Number of instructions issued per FU type, per thread (Count)
board.processor.cores.core.statIssuedInstType_0::FloatAdd            2      0.01%     77.47% # Number of instructions issued per FU type, per thread (Count)
board.processor.cores.core.statIssuedInstType_0::FloatCmp            0      0.00%     77.47% # Number of instructions issued per FU type, per thread (Count)
board.processor.cores.core.statIssuedInstType_0::FloatCvt            0      0.00%     77.47% # Number of instructions issued per FU type, per thread (Count)
board.processor.cores.core.statIssuedInstType_0::FloatMult            0      0.00%     77.47% # Number of instructions issued per FU type, per thread (Count)
board.processor.cores.core.statIssuedInstType_0::FloatMultAcc            0      0.00%     77.47% # Number of instructions issued per FU type, per thread (Count)
board.processor.cores.core.statIssuedInstType_0::FloatDiv            0      0.00%     77.47% # Number of instructions issued per FU type, per thread (Count)
board.processor.cores.core.statIssuedInstType_0::FloatMisc            0      0.00%     77.47% # Number of instructions issued per FU type, per thread (Count)
board.processor.cores.core.statIssuedInstType_0::FloatSqrt            0      0.00%     77.47% # Number of instructions issued per FU type, per thread (Count)
board.processor.cores.core.statIssuedInstType_0::SimdAdd            0      0.00%     77.47% # Number of instructions issued per FU type, per thread (Count)
board.processor.cores.core.statIssuedInstType_0::SimdAddAcc            0      0.00%     77.47% # Number of instructions issued per FU type, per thread (Count)
board.processor.cores.core.statIssuedInstType_0::SimdAlu           82      0.43%     77.91% # Number of instructions issued per FU type, per thread (Count)
board.processor.cores.core.statIssuedInstType_0::SimdCmp            0      0.00%     77.91% # Number of instructions issued per FU type, per thread (Count)
board.processor.cores.core.statIssuedInstType_0::SimdCvt           48      0.25%     78.16% # Number of instructions issued per FU type, per thread (Count)
board.processor.cores.core.statIssuedInstType_0::SimdMisc           62      0.33%     78.49% # Number of instructions issued per FU type, per thread (Count)
board.processor.cores.core.statIssuedInstType_0::SimdMult            0      0.00%     78.49% # Number of instructions issued per FU type, per thread (Count)
board.processor.cores.core.statIssuedInstType_0::SimdMultAcc            0      0.00%     78.49% # Number of instructions issued per FU type, per thread (Count)
board.processor.cores.core.statIssuedInstType_0::SimdMatMultAcc            0      0.00%     78.49% # Number of instructions issued per FU type, per thread (Count)
board.processor.cores.core.statIssuedInstType_0::SimdShift            0      0.00%     78.49% # Number of instructions issued per FU type, per thread (Count)
board.processor.cores.core.statIssuedInstType_0::SimdShiftAcc            0      0.00%     78.49% # Number of instructions issued per FU type, per thread (Count)
board.processor.cores.core.statIssuedInstType_0::SimdDiv            0      0.00%     78.49% # Number of instructions issued per FU type, per thread (Count)
board.processor.cores.core.statIssuedInstType_0::SimdSqrt            0      0.00%     78.49% # Number of instructions issued per FU type, per thread (Count)
board.processor.cores.core.statIssuedInstType_0::SimdFloatAdd            0      0.00%     78.49% # Number of instructions issued per FU type, per thread (Count)
board.processor.cores.core.statIssuedInstType_0::SimdFloatAlu            0      0.00%     78.49% # Number of instructions issued per FU type, per thread (Count)
board.processor.cores.core.statIssuedInstType_0::SimdFloatCmp            0      0.00%     78.49% # Number of instructions issued per FU type, per thread (Count)
board.processor.cores.core.statIssuedInstType_0::SimdFloatCvt            0      0.00%     78.49% # Number of instructions issued per FU type, per thread (Count)
board.processor.cores.core.statIssuedInstType_0::SimdFloatDiv            0      0.00%     78.49% # Number of instructions issued per FU type, per thread (Count)
board.processor.cores.core.statIssuedInstType_0::SimdFloatMisc            0      0.00%     78.49% # Number of instructions issued per FU type, per thread (Count)
board.processor.cores.core.statIssuedInstType_0::SimdFloatMult            0      0.00%     78.49% # Number of instructions issued per FU type, per thread (Count)
board.processor.cores.core.statIssuedInstType_0::SimdFloatMultAcc            0      0.00%     78.49% # Number of instructions issued per FU type, per thread (Count)
board.processor.cores.core.statIssuedInstType_0::SimdFloatMatMultAcc            0      0.00%     78.49% # Number of instructions issued per FU type, per thread (Count)
board.processor.cores.core.statIssuedInstType_0::SimdFloatSqrt            0      0.00%     78.49% # Number of instructions issued per FU type, per thread (Count)
board.processor.cores.core.statIssuedInstType_0::SimdReduceAdd            0      0.00%     78.49% # Number of instructions issued per FU type, per thread (Count)
board.processor.cores.core.statIssuedInstType_0::SimdReduceAlu            0      0.00%     78.49% # Number of instructions issued per FU type, per thread (Count)
board.processor.cores.core.statIssuedInstType_0::SimdReduceCmp            0      0.00%     78.49% # Number of instructions issued per FU type, per thread (Count)
board.processor.cores.core.statIssuedInstType_0::SimdFloatReduceAdd            0      0.00%     78.49% # Number of instructions issued per FU type, per thread (Count)
board.processor.cores.core.statIssuedInstType_0::SimdFloatReduceCmp            0      0.00%     78.49% # Number of instructions issued per FU type, per thread (Count)
board.processor.cores.core.statIssuedInstType_0::SimdAes            0      0.00%     78.49% # Number of instructions issued per FU type, per thread (Count)
board.processor.cores.core.statIssuedInstType_0::SimdAesMix            0      0.00%     78.49% # Number of instructions issued per FU type, per thread (Count)
board.processor.cores.core.statIssuedInstType_0::SimdSha1Hash            0      0.00%     78.49% # Number of instructions issued per FU type, per thread (Count)
board.processor.cores.core.statIssuedInstType_0::SimdSha1Hash2            0      0.00%     78.49% # Number of instructions issued per FU type, per thread (Count)
board.processor.cores.core.statIssuedInstType_0::SimdSha256Hash            0      0.00%     78.49% # Number of instructions issued per FU type, per thread (Count)
board.processor.cores.core.statIssuedInstType_0::SimdSha256Hash2            0      0.00%     78.49% # Number of instructions issued per FU type, per thread (Count)
board.processor.cores.core.statIssuedInstType_0::SimdShaSigma2            0      0.00%     78.49% # Number of instructions issued per FU type, per thread (Count)
board.processor.cores.core.statIssuedInstType_0::SimdShaSigma3            0      0.00%     78.49% # Number of instructions issued per FU type, per thread (Count)
board.processor.cores.core.statIssuedInstType_0::SimdPredAlu            0      0.00%     78.49% # Number of instructions issued per FU type, per thread (Count)
board.processor.cores.core.statIssuedInstType_0::Matrix            0      0.00%     78.49% # Number of instructions issued per FU type, per thread (Count)
board.processor.cores.core.statIssuedInstType_0::MatrixMov            0      0.00%     78.49% # Number of instructions issued per FU type, per thread (Count)
board.processor.cores.core.statIssuedInstType_0::MatrixOP            0      0.00%     78.49% # Number of instructions issued per FU type, per thread (Count)
board.processor.cores.core.statIssuedInstType_0::MemRead         2182     11.54%     90.03% # Number of instructions issued per FU type, per thread (Count)
board.processor.cores.core.statIssuedInstType_0::MemWrite         1595      8.44%     98.47% # Number of instructions issued per FU type, per thread (Count)
board.processor.cores.core.statIssuedInstType_0::FloatMemRead          122      0.65%     99.11% # Number of instructions issued per FU type, per thread (Count)
board.processor.cores.core.statIssuedInstType_0::FloatMemWrite          168      0.89%    100.00% # Number of instructions issued per FU type, per thread (Count)
board.processor.cores.core.statIssuedInstType_0::IprAccess            0      0.00%    100.00% # Number of instructions issued per FU type, per thread (Count)
board.processor.cores.core.statIssuedInstType_0::InstPrefetch            0      0.00%    100.00% # Number of instructions issued per FU type, per thread (Count)
board.processor.cores.core.statIssuedInstType_0::SimdUnitStrideLoad            0      0.00%    100.00% # Number of instructions issued per FU type, per thread (Count)
board.processor.cores.core.statIssuedInstType_0::SimdUnitStrideStore            0      0.00%    100.00% # Number of instructions issued per FU type, per thread (Count)
board.processor.cores.core.statIssuedInstType_0::SimdUnitStrideMaskLoad            0      0.00%    100.00% # Number of instructions issued per FU type, per thread (Count)
board.processor.cores.core.statIssuedInstType_0::SimdUnitStrideMaskStore            0      0.00%    100.00% # Number of instructions issued per FU type, per thread (Count)
board.processor.cores.core.statIssuedInstType_0::SimdStridedLoad            0      0.00%    100.00% # Number of instructions issued per FU type, per thread (Count)
board.processor.cores.core.statIssuedInstType_0::SimdStridedStore            0      0.00%    100.00% # Number of instructions issued per FU type, per thread (Count)
board.processor.cores.core.statIssuedInstType_0::SimdIndexedLoad            0      0.00%    100.00% # Number of instructions issued per FU type, per thread (Count)
board.processor.cores.core.statIssuedInstType_0::SimdIndexedStore            0      0.00%    100.00% # Number of instructions issued per FU type, per thread (Count)
board.processor.cores.core.statIssuedInstType_0::SimdWholeRegisterLoad            0      0.00%    100.00% # Number of instructions issued per FU type, per thread (Count)
board.processor.cores.core.statIssuedInstType_0::SimdWholeRegisterStore            0      0.00%    100.00% # Number of instructions issued per FU type, per thread (Count)
board.processor.cores.core.statIssuedInstType_0::SimdUnitStrideFaultOnlyFirstLoad            0      0.00%    100.00% # Number of instructions issued per FU type, per thread (Count)
board.processor.cores.core.statIssuedInstType_0::SimdUnitStrideSegmentedLoad            0      0.00%    100.00% # Number of instructions issued per FU type, per thread (Count)
board.processor.cores.core.statIssuedInstType_0::SimdUnitStrideSegmentedStore            0      0.00%    100.00% # Number of instructions issued per FU type, per thread (Count)
board.processor.cores.core.statIssuedInstType_0::SimdExt            0      0.00%    100.00% # Number of instructions issued per FU type, per thread (Count)
board.processor.cores.core.statIssuedInstType_0::SimdFloatExt            0      0.00%    100.00% # Number of instructions issued per FU type, per thread (Count)
board.processor.cores.core.statIssuedInstType_0::SimdConfig            0      0.00%    100.00% # Number of instructions issued per FU type, per thread (Count)
board.processor.cores.core.statIssuedInstType_0::total        18906                       # Number of instructions issued per FU type, per thread (Count)
board.processor.cores.core.issueRate         0.079812                       # Inst issue rate ((Count/Cycle))
board.processor.cores.core.fuBusy                 143                       # FU busy when requested (Count)
board.processor.cores.core.fuBusyRate        0.007564                       # FU busy rate (busy events/executed inst) ((Count/Count))
board.processor.cores.core.intInstQueueReads       122364                       # Number of integer instruction queue reads (Count)
board.processor.cores.core.intInstQueueWrites        26904                       # Number of integer instruction queue writes (Count)
board.processor.cores.core.intInstQueueWakeupAccesses        17362                       # Number of integer instruction queue wakeup accesses (Count)
board.processor.cores.core.fpInstQueueReads         1002                       # Number of floating instruction queue reads (Count)
board.processor.cores.core.fpInstQueueWrites          462                       # Number of floating instruction queue writes (Count)
board.processor.cores.core.fpInstQueueWakeupAccesses          412                       # Number of floating instruction queue wakeup accesses (Count)
board.processor.cores.core.vecInstQueueReads            0                       # Number of vector instruction queue reads (Count)
board.processor.cores.core.vecInstQueueWrites            0                       # Number of vector instruction queue writes (Count)
board.processor.cores.core.vecInstQueueWakeupAccesses            0                       # Number of vector instruction queue wakeup accesses (Count)
board.processor.cores.core.intAluAccesses        18408                       # Number of integer alu accesses (Count)
board.processor.cores.core.fpAluAccesses          510                       # Number of floating point alu accesses (Count)
board.processor.cores.core.vecAluAccesses            0                       # Number of vector alu accesses (Count)
board.processor.cores.core.numSquashedInsts          161                       # Number of squashed instructions skipped in execute (Count)
board.processor.cores.core.numSwp                   0                       # Number of swp insts executed (Count)
board.processor.cores.core.timesIdled            2322                       # Number of times that the entire CPU went into an idle state and unscheduled itself (Count)
board.processor.cores.core.idleCycles          151479                       # Total number of cycles that the CPU has spent unscheduled due to idling (Cycle)
board.processor.cores.core.MemDepUnit__0.insertedLoads         2042                       # Number of loads inserted to the mem dependence unit. (Count)
board.processor.cores.core.MemDepUnit__0.insertedStores         1949                       # Number of stores inserted to the mem dependence unit. (Count)
board.processor.cores.core.MemDepUnit__0.conflictingLoads           38                       # Number of conflicting loads. (Count)
board.processor.cores.core.MemDepUnit__0.conflictingStores           30                       # Number of conflicting stores. (Count)
board.processor.cores.core.MemDepUnit__1.insertedLoads            0                       # Number of loads inserted to the mem dependence unit. (Count)
board.processor.cores.core.MemDepUnit__1.insertedStores            0                       # Number of stores inserted to the mem dependence unit. (Count)
board.processor.cores.core.MemDepUnit__1.conflictingLoads            0                       # Number of conflicting loads. (Count)
board.processor.cores.core.MemDepUnit__1.conflictingStores            0                       # Number of conflicting stores. (Count)
board.processor.cores.core.MemDepUnit__2.insertedLoads            0                       # Number of loads inserted to the mem dependence unit. (Count)
board.processor.cores.core.MemDepUnit__2.insertedStores            0                       # Number of stores inserted to the mem dependence unit. (Count)
board.processor.cores.core.MemDepUnit__2.conflictingLoads            0                       # Number of conflicting loads. (Count)
board.processor.cores.core.MemDepUnit__2.conflictingStores            0                       # Number of conflicting stores. (Count)
board.processor.cores.core.MemDepUnit__3.insertedLoads            0                       # Number of loads inserted to the mem dependence unit. (Count)
board.processor.cores.core.MemDepUnit__3.insertedStores            0                       # Number of stores inserted to the mem dependence unit. (Count)
board.processor.cores.core.MemDepUnit__3.conflictingLoads            0                       # Number of conflicting loads. (Count)
board.processor.cores.core.MemDepUnit__3.conflictingStores            0                       # Number of conflicting stores. (Count)
board.processor.cores.core.branchPred.lookups_0::NoBranch            0      0.00%      0.00% # Number of BP lookups (Count)
board.processor.cores.core.branchPred.lookups_0::Return          195      7.58%      7.58% # Number of BP lookups (Count)
board.processor.cores.core.branchPred.lookups_0::CallDirect          213      8.28%     15.85% # Number of BP lookups (Count)
board.processor.cores.core.branchPred.lookups_0::CallIndirect           66      2.56%     18.41% # Number of BP lookups (Count)
board.processor.cores.core.branchPred.lookups_0::DirectCond         1863     72.38%     90.79% # Number of BP lookups (Count)
board.processor.cores.core.branchPred.lookups_0::DirectUncond          209      8.12%     98.91% # Number of BP lookups (Count)
board.processor.cores.core.branchPred.lookups_0::IndirectCond            0      0.00%     98.91% # Number of BP lookups (Count)
board.processor.cores.core.branchPred.lookups_0::IndirectUncond           28      1.09%    100.00% # Number of BP lookups (Count)
board.processor.cores.core.branchPred.lookups_0::total         2574                       # Number of BP lookups (Count)
board.processor.cores.core.branchPred.squashes_0::NoBranch            0      0.00%      0.00% # Number of branches that got squashed (completely removed) as an earlier branch was mispredicted. (Count)
board.processor.cores.core.branchPred.squashes_0::Return           73      6.70%      6.70% # Number of branches that got squashed (completely removed) as an earlier branch was mispredicted. (Count)
board.processor.cores.core.branchPred.squashes_0::CallDirect          126     11.56%     18.26% # Number of branches that got squashed (completely removed) as an earlier branch was mispredicted. (Count)
board.processor.cores.core.branchPred.squashes_0::CallIndirect           26      2.39%     20.64% # Number of branches that got squashed (completely removed) as an earlier branch was mispredicted. (Count)
[...]
board.processor.cores.core.executeStats0.numCCRegReads         8185                       # Number of times the CC registers were read (Count)
board.processor.cores.core.executeStats0.numCCRegWrites         5477                       # Number of times the CC registers were written (Count)
board.processor.cores.core.executeStats0.numFpRegReads          568                       # Number of times the floating registers were read (Count)
board.processor.cores.core.executeStats0.numFpRegWrites          202                       # Number of times the floating registers were written (Count)
board.processor.cores.core.executeStats0.numIntRegReads        19319                       # Number of times the integer registers were read (Count)
board.processor.cores.core.executeStats0.numIntRegWrites        12468                       # Number of times the integer registers were written (Count)
board.processor.cores.core.executeStats0.numMemRefs         4002                       # Number of memory refs (Count)
board.processor.cores.core.executeStats0.numMiscRegReads         8466                       # Number of times the Misc registers were read (Count)
board.processor.cores.core.executeStats0.numVecAluAccesses            0                       # Number of vector alu accesses (Count)
board.processor.cores.core.executeStats0.numDiscardedOps            0                       # Number of ops (including micro ops) which were discarded before commit (Count)
board.processor.cores.core.fetch.predictedBranches          729                       # Number of branches that fetch has predicted taken (Count)
board.processor.cores.core.fetch.cycles          8598                       # Number of cycles fetch has run and was not squashing or blocked (Cycle)
board.processor.cores.core.fetch.squashCycles         1354                       # Number of cycles fetch has spent squashing (Cycle)
board.processor.cores.core.fetch.miscStallCycles           41                       # Number of cycles fetch has spent waiting on interrupts, or bad addresses, or out of MSHRs (Cycle)
board.processor.cores.core.fetch.pendingTrapStallCycles          177                       # Number of stall cycles due to pending traps (Cycle)
board.processor.cores.core.fetch.cacheLines         1923                       # Number of cache lines fetched (Count)
board.processor.cores.core.fetch.icacheSquashes          513                       # Number of outstanding Icache misses that were squashed (Count)
board.processor.cores.core.fetch.nisnDist::samples        85403                       # Number of instructions fetched each cycle (Total) (Count)
board.processor.cores.core.fetch.nisnDist::mean     0.261033                       # Number of instructions fetched each cycle (Total) (Count)
board.processor.cores.core.fetch.nisnDist::stdev     1.351061                       # Number of instructions fetched each cycle (Total) (Count)
board.processor.cores.core.fetch.nisnDist::underflows            0      0.00%      0.00% # Number of instructions fetched each cycle (Total) (Count)
board.processor.cores.core.fetch.nisnDist::0        81985     96.00%     96.00% # Number of instructions fetched each cycle (Total) (Count)
board.processor.cores.core.fetch.nisnDist::1          106      0.12%     96.12% # Number of instructions fetched each cycle (Total) (Count)
board.processor.cores.core.fetch.nisnDist::2          148      0.17%     96.30% # Number of instructions fetched each cycle (Total) (Count)
board.processor.cores.core.fetch.nisnDist::3          288      0.34%     96.63% # Number of instructions fetched each cycle (Total) (Count)
board.processor.cores.core.fetch.nisnDist::4          157      0.18%     96.82% # Number of instructions fetched each cycle (Total) (Count)
board.processor.cores.core.fetch.nisnDist::5          312      0.37%     97.18% # Number of instructions fetched each cycle (Total) (Count)
board.processor.cores.core.fetch.nisnDist::6          157      0.18%     97.37% # Number of instructions fetched each cycle (Total) (Count)
board.processor.cores.core.fetch.nisnDist::7          103      0.12%     97.49% # Number of instructions fetched each cycle (Total) (Count)
board.processor.cores.core.fetch.nisnDist::8         2147      2.51%    100.00% # Number of instructions fetched each cycle (Total) (Count)
board.processor.cores.core.fetch.nisnDist::overflows            0      0.00%    100.00% # Number of instructions fetched each cycle (Total) (Count)
board.processor.cores.core.fetch.nisnDist::min_value            0                       # Number of instructions fetched each cycle (Total) (Count)
board.processor.cores.core.fetch.nisnDist::max_value            8                       # Number of instructions fetched each cycle (Total) (Count)
board.processor.cores.core.fetch.nisnDist::total        85403                       # Number of instructions fetched each cycle (Total) (Count)
board.processor.cores.core.fetchStats0.numInsts        11379                       # Number of instructions fetched (thread level) (Count)
board.processor.cores.core.fetchStats0.numOps            0                       # Number of ops (including micro ops) fetched (thread level) (Count)
board.processor.cores.core.fetchStats0.fetchRate     0.048037                       # Number of inst fetches per cycle ((Count/Cycle))
board.processor.cores.core.fetchStats0.numBranches         2574                       # Number of branches fetched (Count)
board.processor.cores.core.fetchStats0.branchRate     0.010866                       # Number of branch fetches per cycle (Ratio)
board.processor.cores.core.fetchStats0.icacheStallCycles        75910                       # ICache total stall cycles (Cycle)
board.processor.cores.core.fetchStats0.numFetchSuspends            0                       # Number of times Execute suspended instruction fetching (Count)
board.processor.cores.core.iew.idleCycles            0                       # Number of cycles IEW is idle (Cycle)
board.processor.cores.core.iew.squashCycles          458                       # Number of cycles IEW is squashing (Cycle)
board.processor.cores.core.iew.blockCycles          813                       # Number of cycles IEW is blocking (Cycle)
board.processor.cores.core.iew.unblockCycles         2033                       # Number of cycles IEW is unblocking (Cycle)
board.processor.cores.core.iew.dispatchedInsts        20179                       # Number of instructions dispatched to IQ (Count)
board.processor.cores.core.iew.dispSquashedInsts            4                       # Number of squashed instructions skipped by dispatch (Count)
board.processor.cores.core.iew.dispLoadInsts         2042                       # Number of dispatched load instructions (Count)
board.processor.cores.core.iew.dispStoreInsts         1949                       # Number of dispatched store instructions (Count)
board.processor.cores.core.iew.dispNonSpecInsts           24                       # Number of dispatched non-speculative instructions (Count)
board.processor.cores.core.iew.iqFullEvents            0                       # Number of times the IQ has become full, causing a stall (Count)
board.processor.cores.core.iew.lsqFullEvents         2033                       # Number of times the LSQ has become full, causing a stall (Count)
board.processor.cores.core.iew.memOrderViolationEvents            6                       # Number of memory order violations (Count)
board.processor.cores.core.iew.predictedTakenIncorrect           29                       # Number of branches that were predicted taken incorrectly (Count)
board.processor.cores.core.iew.predictedNotTakenIncorrect          434                       # Number of branches that were predicted not taken incorrectly (Count)
board.processor.cores.core.iew.branchMispredicts          463                       # Number of branch mispredicts detected at execute (Count)
board.processor.cores.core.iew.instsToCommit        17874                       # Cumulative count of insts sent to commit (Count)
board.processor.cores.core.iew.writebackCount        17774                       # Cumulative count of insts written-back (Count)
board.processor.cores.core.iew.producerInst        11743                       # Number of instructions producing a value (Count)
board.processor.cores.core.iew.consumerInst        17091                       # Number of instructions consuming a value (Count)
board.processor.cores.core.iew.wbRate        0.075033                       # Insts written-back per cycle ((Count/Cycle))
board.processor.cores.core.iew.wbFanout      0.687087                       # Average fanout of values written-back ((Count/Count))
board.processor.cores.core.interrupts.clk_domain.clock         5328                       # Clock period in ticks (Tick)
board.processor.cores.core.lsq0.forwLoads           32                       # Number of loads that had data forwarded from stores (Count)
board.processor.cores.core.lsq0.squashedLoads          770                       # Number of loads squashed (Count)
board.processor.cores.core.lsq0.ignoredResponses            1                       # Number of memory responses ignored because the instruction is squashed (Count)
board.processor.cores.core.lsq0.memOrderViolation            6                       # Number of memory ordering violations (Count)
board.processor.cores.core.lsq0.squashedStores          598                       # Number of stores squashed (Count)
board.processor.cores.core.lsq0.rescheduledLoads            1                       # Number of loads that were rescheduled (Count)
board.processor.cores.core.lsq0.blockedByCache          372                       # Number of times an access to memory failed due to the cache being blocked (Count)
board.processor.cores.core.lsq0.loadToUse::samples         1272                       # Distribution of cycle latency between the first time a load is issued and its completion (Unspecified)
board.processor.cores.core.lsq0.loadToUse::mean   167.172956                       # Distribution of cycle latency between the first time a load is issued and its completion (Unspecified)
board.processor.cores.core.lsq0.loadToUse::stdev    84.833432                       # Distribution of cycle latency between the first time a load is issued and its completion (Unspecified)
board.processor.cores.core.lsq0.loadToUse::0-9            8      0.63%      0.63% # Distribution of cycle latency between the first time a load is issued and its completion (Unspecified)
board.processor.cores.core.lsq0.loadToUse::40-49          171     13.44%     14.07% # Distribution of cycle latency between the first time a load is issued and its completion (Unspecified)
board.processor.cores.core.lsq0.loadToUse::120-129           38      2.99%     17.06% # Distribution of cycle latency between the first time a load is issued and its completion (Unspecified)
board.processor.cores.core.lsq0.loadToUse::130-139          129     10.14%     27.20% # Distribution of cycle latency between the first time a load is issued and its completion (Unspecified)
board.processor.cores.core.lsq0.loadToUse::140-149          214     16.82%     44.03% # Distribution of cycle latency between the first time a load is issued and its completion (Unspecified)
board.processor.cores.core.lsq0.loadToUse::150-159           93      7.31%     51.34% # Distribution of cycle latency between the first time a load is issued and its completion (Unspecified)
board.processor.cores.core.lsq0.loadToUse::160-169          114      8.96%     60.30% # Distribution of cycle latency between the first time a load is issued and its completion (Unspecified)
board.processor.cores.core.lsq0.loadToUse::170-179           60      4.72%     65.02% # Distribution of cycle latency between the first time a load is issued and its completion (Unspecified)
board.processor.cores.core.lsq0.loadToUse::180-189           64      5.03%     70.05% # Distribution of cycle latency between the first time a load is issued and its completion (Unspecified)
board.processor.cores.core.lsq0.loadToUse::190-199           28      2.20%     72.25% # Distribution of cycle latency between the first time a load is issued and its completion (Unspecified)
board.processor.cores.core.lsq0.loadToUse::200-209           21      1.65%     73.90% # Distribution of cycle latency between the first time a load is issued and its completion (Unspecified)
board.processor.cores.core.lsq0.loadToUse::210-219           73      5.74%     79.64% # Distribution of cycle latency between the first time a load is issued and its completion (Unspecified)
board.processor.cores.core.lsq0.loadToUse::220-229           51      4.01%     83.65% # Distribution of cycle latency between the first time a load is issued and its completion (Unspecified)
board.processor.cores.core.lsq0.loadToUse::230-239           43      3.38%     87.03% # Distribution of cycle latency between the first time a load is issued and its completion (Unspecified)
board.processor.cores.core.lsq0.loadToUse::240-249           47      3.69%     90.72% # Distribution of cycle latency between the first time a load is issued and its completion (Unspecified)
board.processor.cores.core.lsq0.loadToUse::250-259           15      1.18%     91.90% # Distribution of cycle latency between the first time a load is issued and its completion (Unspecified)
board.processor.cores.core.lsq0.loadToUse::260-269           27      2.12%     94.03% # Distribution of cycle latency between the first time a load is issued and its completion (Unspecified)
board.processor.cores.core.lsq0.loadToUse::270-279           20      1.57%     95.60% # Distribution of cycle latency between the first time a load is issued and its completion (Unspecified)
board.processor.cores.core.lsq0.loadToUse::280-289            4      0.31%     95.91% # Distribution of cycle latency between the first time a load is issued and its completion (Unspecified)
board.processor.cores.core.lsq0.loadToUse::290-299           12      0.94%     96.86% # Distribution of cycle latency between the first time a load is issued and its completion (Unspecified)
board.processor.cores.core.lsq0.loadToUse::overflows           40      3.14%    100.00% # Distribution of cycle latency between the first time a load is issued and its completion (Unspecified)
board.processor.cores.core.lsq0.loadToUse::min_value            2                       # Distribution of cycle latency between the first time a load is issued and its completion (Unspecified)
board.processor.cores.core.lsq0.loadToUse::max_value          981                       # Distribution of cycle latency between the first time a load is issued and its completion (Unspecified)
board.processor.cores.core.lsq0.loadToUse::total         1272                       # Distribution of cycle latency between the first time a load is issued and its completion (Unspecified)
board.processor.cores.core.mmu.dtb.rdAccesses         1856                       # TLB accesses on read requests (Count)
board.processor.cores.core.mmu.dtb.wrAccesses         1728                       # TLB accesses on write requests (Count)
board.processor.cores.core.mmu.dtb.rdMisses           56                       # TLB misses on read requests (Count)
board.processor.cores.core.mmu.dtb.wrMisses           18                       # TLB misses on write requests (Count)
board.processor.cores.core.mmu.dtb.walker.power_state.pwrStateResidencyTicks::UNDEFINED     78881373                       # Cumulative time (in ticks) in various power states (Tick)
board.processor.cores.core.mmu.itb.rdAccesses            0                       # TLB accesses on read requests (Count)
board.processor.cores.core.mmu.itb.wrAccesses         1955                       # TLB accesses on write requests (Count)
board.processor.cores.core.mmu.itb.rdMisses            0                       # TLB misses on read requests (Count)
board.processor.cores.core.mmu.itb.wrMisses           72                       # TLB misses on write requests (Count)
board.processor.cores.core.mmu.itb.walker.power_state.pwrStateResidencyTicks::UNDEFINED     78881373                       # Cumulative time (in ticks) in various power states (Tick)
board.processor.cores.core.power_state.pwrStateResidencyTicks::ON     78881373                       # Cumulative time (in ticks) in various power states (Tick)
board.processor.cores.core.rename.squashCycles          458                       # Number of cycles rename is squashing (Cycle)
board.processor.cores.core.rename.idleCycles        75118                       # Number of cycles rename is idle (Cycle)
board.processor.cores.core.rename.blockCycles         3105                       # Number of cycles rename is blocking (Cycle)
board.processor.cores.core.rename.serializeStallCycles          828                       # count of cycles rename stalled for serializing inst (Cycle)
board.processor.cores.core.rename.runCycles         3181                       # Number of cycles rename is running (Cycle)
board.processor.cores.core.rename.unblockCycles         2713                       # Number of cycles rename is unblocking (Cycle)
board.processor.cores.core.rename.renamedInsts        20331                       # Number of instructions processed by rename (Count)
board.processor.cores.core.rename.ROBFullEvents           26                       # Number of times rename has blocked due to ROB full (Count)
board.processor.cores.core.rename.IQFullEvents            4                       # Number of times rename has blocked due to IQ full (Count)
board.processor.cores.core.rename.SQFullEvents         2662                       # Number of times rename has blocked due to SQ full (Count)
board.processor.cores.core.rename.renamedOperands        32685                       # Number of destination operands rename has renamed (Count)
board.processor.cores.core.rename.lookups        65777                       # Number of register rename lookups that rename has made (Count)
board.processor.cores.core.rename.intLookups        22302                       # Number of integer rename lookups (Count)
board.processor.cores.core.rename.fpLookups          594                       # Number of floating rename lookups (Count)
board.processor.cores.core.rename.committedMaps        20771                       # Number of HB maps that are committed (Count)
board.processor.cores.core.rename.undoneMaps        11905                       # Number of HB maps that are undone due to squashing (Count)
board.processor.cores.core.rename.serializing            5                       # count of serializing insts renamed (Count)
board.processor.cores.core.rename.tempSerializing            4                       # count of temporary serializing insts renamed (Count)
board.processor.cores.core.rename.skidInsts          374                       # count of insts added to the skid buffer (Count)
board.processor.cores.core.rob.reads           103787                       # The number of ROB reads (Count)
board.processor.cores.core.rob.writes           41620                       # The number of ROB writes (Count)
board.processor.cores.core.thread_0.numInsts         6555                       # Number of Instructions committed (Count)
board.processor.cores.core.thread_0.numOps        12992                       # Number of Ops committed (Count)
board.processor.cores.core.thread_0.numMemRefs            0                       # Number of Memory References (Count)
board.processor.cores.core.workload.numSyscalls           11                       # Number of system calls (Count)
board.workload.inst.arm                             0                       # number of arm instructions executed (Count)
board.workload.inst.quiesce                         0                       # number of quiesce instructions executed (Count)

---------- End Simulation Statistics   ----------
